CT1000048109


 42 45  0  0  0  0  0  0  0  0999 V2000
   -0.0509    1.4417   -0.6380 C   0  0  0  0  0
   -0.0433    0.0668   -0.8599 N   0  0  0  0  0
    1.1520    2.1524   -0.6511 C   0  0  0  0  0
   -1.2519    2.0947   -0.4119 C   0  0  0  0  0
   -0.5993   -0.6557    0.2928 C   0  0  0  0  0
   -0.7708   -0.2721   -2.0909 C   0  0  0  0  0
    2.3144    1.5026   -0.8789 F   0  0  0  0  0
    1.1582    3.5013   -0.4349 C   0  0  0  0  0
   -1.2615    3.4666   -0.1904 C   0  0  0  0  0
   -0.5002   -2.1625    0.0432 C   0  0  0  0  0
   -0.6717   -1.7789   -2.3406 C   0  0  0  0  0
   -0.0442    4.1723   -0.1998 C   0  0  0  0  0
   -2.4488    4.1307    0.0358 N   0  0  0  0  0
   -1.2276   -2.5013   -1.1879 N   0  0  0  0  0
   -0.0697    5.6253    0.0368 C   0  0  0  0  0
   -3.6946    3.3597    0.0381 C   0  0  0  0  0
   -2.5110    5.4509    0.2540 C   0  0  0  0  0
   -1.3834    6.2458    0.2760 C   0  0  0  0  0
    0.9541    6.2869    0.0353 O   0  0  0  0  0
   -4.5912    3.4697    1.2730 C   0  0  0  0  0
   -5.0084    4.1401   -0.0376 C   0  0  0  0  0
   -1.4932    7.6906    0.5207 C   0  0  0  0  0
   -2.5827    8.1928    0.7170 O   0  0  0  0  0
   -0.3856    8.4592    0.5276 O   0  0  0  0  0
   -2.1781    1.5391   -0.4081 H   0  0  0  0  0
   -0.0361   -0.3979    1.1897 H   0  0  0  0  0
   -1.6446   -0.3773    0.4267 H   0  0  0  0  0
   -1.8180    0.0107   -1.9841 H   0  0  0  0  0
   -0.3326    0.2654   -2.9319 H   0  0  0  0  0
    2.0900    4.0472   -0.4453 H   0  0  0  0  0
    0.5471   -2.4453   -0.0637 H   0  0  0  0  0
   -0.9383   -2.7000    0.8841 H   0  0  0  0  0
   -1.2348   -2.0367   -3.2375 H   0  0  0  0  0
    0.3736   -2.0573   -2.4745 H   0  0  0  0  0
   -2.2145   -2.3168   -1.0872 H   0  0  0  0  0
   -3.6516    2.3955   -0.4684 H   0  0  0  0  0
   -3.4750    5.9071    0.4243 H   0  0  0  0  0
   -5.1384    2.5780    1.5786 H   0  0  0  0  0
   -4.2542    4.1157    2.0837 H   0  0  0  0  0
   -4.9460    5.2271   -0.0890 H   0  0  0  0  0
   -5.8302    3.6893   -0.5941 H   0  0  0  0  0
   -0.5080    9.4040    0.6930 H   0  0  0  0  0
  1  2  1  0  0  0  0
  1  3  2  0  0  0  0
  1  4  1  0  0  0  0
  2  5  1  0  0  0  0
  2  6  1  0  0  0  0
  3  7  1  0  0  0  0
  3  8  1  0  0  0  0
  4  9  2  0  0  0  0
  4 25  1  0  0  0  0
  5 10  1  0  0  0  0
  5 26  1  0  0  0  0
  5 27  1  0  0  0  0
  6 11  1  0  0  0  0
  6 28  1  0  0  0  0
  6 29  1  0  0  0  0
  8 12  2  0  0  0  0
  8 30  1  0  0  0  0
  9 12  1  0  0  0  0
  9 13  1  0  0  0  0
 10 14  1  0  0  0  0
 10 31  1  0  0  0  0
 10 32  1  0  0  0  0
 11 14  1  0  0  0  0
 11 33  1  0  0  0  0
 11 34  1  0  0  0  0
 12 15  1  0  0  0  0
 13 16  1  0  0  0  0
 13 17  1  0  0  0  0
 14 35  1  0  0  0  0
 15 18  1  0  0  0  0
 15 19  2  0  0  0  0
 16 20  1  0  0  0  0
 16 21  1  0  0  0  0
 16 36  1  0  0  0  0
 17 18  2  0  0  0  0
 17 37  1  0  0  0  0
 18 22  1  0  0  0  0
 20 21  1  0  0  0  0
 20 38  1  0  0  0  0
 20 39  1  0  0  0  0
 21 40  1  0  0  0  0
 21 41  1  0  0  0  0
 22 23  2  0  0  0  0
 22 24  1  0  0  0  0
 24 42  1  0  0  0  0
M  END
$$$$
